
Note: No compatibility mode selected!


Circuit: * rc circuit example

Doing analysis at TEMP = 27.000000 and TNOM = 27.000000

Using SPARSE 1.3 as Direct Linear Solver

Initial Transient Solution
--------------------------

Node                                   Voltage
----                                   -------
in                                          10
out                                         10
v1#branch                                    0


No. of Data Rows : 59
                              * rc circuit example
                              Transient Analysis  Tue Nov  5 05:16:15  2024
--------------------------------------------------------------------------------
Index   time            v(out)          
--------------------------------------------------------------------------------
0	0.000000e+00	1.000000e+01	
1	1.000000e-06	1.000000e+01	
2	2.000000e-06	1.000000e+01	
3	4.000000e-06	1.000000e+01	
4	8.000000e-06	1.000000e+01	
5	1.600000e-05	1.000000e+01	
6	3.200000e-05	1.000000e+01	
7	6.400000e-05	1.000000e+01	
8	1.280000e-04	1.000000e+01	
9	2.560000e-04	1.000000e+01	
10	4.560000e-04	1.000000e+01	
11	6.560000e-04	1.000000e+01	
12	8.560000e-04	1.000000e+01	
13	1.056000e-03	1.000000e+01	
14	1.256000e-03	1.000000e+01	
15	1.456000e-03	1.000000e+01	
16	1.656000e-03	1.000000e+01	
17	1.856000e-03	1.000000e+01	
18	2.056000e-03	1.000000e+01	
19	2.256000e-03	1.000000e+01	
20	2.456000e-03	1.000000e+01	
21	2.656000e-03	1.000000e+01	
22	2.856000e-03	1.000000e+01	
23	3.056000e-03	1.000000e+01	
24	3.256000e-03	1.000000e+01	
25	3.456000e-03	1.000000e+01	
26	3.656000e-03	1.000000e+01	
27	3.856000e-03	1.000000e+01	
28	4.056000e-03	1.000000e+01	
29	4.256000e-03	1.000000e+01	
30	4.456000e-03	1.000000e+01	
31	4.656000e-03	1.000000e+01	
32	4.856000e-03	1.000000e+01	
33	5.056000e-03	1.000000e+01	
34	5.256000e-03	1.000000e+01	
35	5.456000e-03	1.000000e+01	
36	5.656000e-03	1.000000e+01	
37	5.856000e-03	1.000000e+01	
38	6.056000e-03	1.000000e+01	
39	6.256000e-03	1.000000e+01	
40	6.456000e-03	1.000000e+01	
41	6.656000e-03	1.000000e+01	
42	6.856000e-03	1.000000e+01	
43	7.056000e-03	1.000000e+01	
44	7.256000e-03	1.000000e+01	
45	7.456000e-03	1.000000e+01	
46	7.656000e-03	1.000000e+01	
47	7.856000e-03	1.000000e+01	
48	8.056000e-03	1.000000e+01	
49	8.256000e-03	1.000000e+01	
50	8.456000e-03	1.000000e+01	
51	8.656000e-03	1.000000e+01	
52	8.856000e-03	1.000000e+01	
53	9.056000e-03	1.000000e+01	
54	9.256000e-03	1.000000e+01	

Index   time            v(out)          
--------------------------------------------------------------------------------
55	9.456000e-03	1.000000e+01	
56	9.656000e-03	1.000000e+01	
57	9.856000e-03	1.000000e+01	
58	1.000000e-02	1.000000e+01	


Total analysis time (seconds) = 0.006

Total elapsed time (seconds) = 0.072 

Total DRAM available = 16286.660 MB.
DRAM currently available = 9996.031 MB.
Maximum ngspice program size =   13.605 MB.
Current ngspice program size =   13.602 MB.

